LAMMPS (10 Jan 2012)
# 2d Lennard-Jones melt and subsequent energy minimization

units		lj
dimension	2
atom_style	atomic

lattice		sq2 0.8442
Lattice spacing in x,y,z = 1.53919 1.53919 1.53919
region		box block 0 20 0 20 -0.1 0.1
create_box	1 box
Created orthogonal box = (0 0 -0.153919) to (30.7838 30.7838 0.153919)
create_atoms	1 box
Created 800 atoms
mass		1 1.0

velocity	all create 5.0 87287 loop geom

pair_style	lj/cut 2.5
pair_coeff	1 1 1.0 1.0 2.5
pair_modify	shift yes

neighbor	0.3 bin
neigh_modify	delay 0 every 1 check yes

fix		1 all nve
fix		2 all enforce2d

dump		1 all atom 100 dump.min

thermo		100

run		1000
Step Temp E_pair E_mol TotEng Press
0            5    -2.461717            0     2.532033    5.0190509
Averages over the last 6 of 11 rows, steps 500 to 1000:
Temp E_pair E_mol TotEng Press
3.33219 -0.796514 0 2.53151 15.5625
Loop time of 0.202823 on 1 procs for 1000 steps with 800 atoms

Pair  time (%) = 0.12714 (62.6852)
Neigh time (%) = 0.0455041 (22.4354)
Comm  time (%) = 0.0052371 (2.58211)
Outpt time (%) = 0.00616384 (3.03902)
Other time (%) = 0.0187778 (9.25825)

neigh_modify	delay 0 every 1 check yes

velocity	all create 0.0 1
dump_modify	1 every 25
thermo		50
minimize	1.0e-6 0.001 1000 10000
Step Temp E_pair E_mol TotEng Press
1000            0   -0.7783474            0   -0.7783474    12.864955
Loop time of 0.286365 on 1 procs for 365 steps with 800 atoms

Minimization stats:
  Stopping criterion = energy tolerance
  Energy initial, next-to-last, final =
  Force two-norm initial, final = 1921.37 0.684479
  Force max component initial, final = 298.456 0.229696
  Final line search alpha, max atom move = 0.00501944 0.00115295
  Iterations, force evaluations = 365 1305

Pair  time (%) = 0.231558 (80.861)
Neigh time (%) = 0.018275 (6.38172)
Comm  time (%) = 0.00431538 (1.50695)
Outpt time (%) = 0.00861835 (3.00957)
Other time (%) = 0.0235987 (8.24077)

fix             3 all box/relax x 1.0 y 2.0 vmax 1.0e-4 nreset 100

thermo_style    custom step temp pe pxx pyy pxy

min_modify      line quadratic
minimize	0.0 1.0e-6 10000 100000
Step Temp PotEng Pxx Pyy Pxy
1365            0    -2.895477   -1.2253391     -1.16438 0.0029844696
Averages over the last 101 of 202 rows, steps 6400 to 11365:
Temp PotEng Pxx Pyy Pxy
0 -2.94443 0.999865 1.99969 0.134106
Loop time of 2.83502 on 1 procs for 10000 steps with 800 atoms

Minimization stats:
  Stopping criterion = max iterations
  Energy initial, next-to-last, final =
  Force two-norm initial, final = 3665.97 9.17614
  Force max component initial, final = 2998.7 4.66725
  Final line search alpha, max atom move = 3.63787e-05 0.000169788
  Iterations, force evaluations = 10000 10013

Pair  time (%) = 1.92875 (68.033)
Neigh time (%) = 0.00763345 (0.269255)
Comm  time (%) = 0.0281737 (0.993773)
Outpt time (%) = 0.247626 (8.73452)
Other time (%) = 0.622838 (21.9694)
