LAMMPS (10 Jan 2012)
# GayBerne ellipsoids in LJ background fluid

units	     lj
atom_style   ellipsoid
dimension    2

lattice	     sq 0.02
Lattice spacing in x,y,z = 7.07107 7.07107 7.07107
region	     box block 0 20 0 20 -0.5 0.5
create_box   2 box
Created orthogonal box = (0 0 -3.53553) to (141.421 141.421 3.53553)
create_atoms 1 box
Created 400 atoms

set	     group all type/fraction 2 0.1 95392
  45 settings made for type/fraction
set 	     type 1 mass 1.0
  355 settings made for mass
set 	     type 2 mass 1.5
  45 settings made for mass
set 	     type 1 shape 1 1 1
  355 settings made for shape
set 	     type 2 shape 3 1 1
  45 settings made for shape
set	     group all quat/random 18238
  400 settings made for quat/random

compute	     rot all temp/asphere
group	     spheroid type 1
355 atoms in group spheroid
variable     dof equal count(spheroid)+2
compute_modify rot extra 357

velocity     all create 2.4 87287 loop geom

pair_style   gayberne 1.0 3.0 1.0 4.0
pair_coeff   1 1 3.0 1.0 1 1 1 1 1 1 2.5
pair_coeff   1 2 3.0 1.0 1 1 1 0 0 0
pair_coeff   2 2 1.0 1.0 1 1 0.2 0 0 0

#pair_style   resquared 4.0
#pair_coeff   1 1 3.0 1 1 1 1 1 1 1 2.5
#pair_coeff   1 2 3.0 1 1 1 1 0 0 0
#pair_coeff   2 2 1.0 1 1 1 0.2 0 0 0

neighbor     0.8 bin

thermo_style custom step c_rot epair etotal press vol
thermo	     100

timestep     0.002

compute	     q all property/atom quatw quati quatj quatk

dump	     1 all custom 100 dump.ellipse.gayberne 	     id type x y z c_q[1] c_q[2] c_q[3] c_q[4]

#dump	     1 all custom 100 dump.ellipse.resquared #	     id type x y z c_q[1] c_q[2] c_q[3] c_q[4]

fix	     1 all npt/asphere temp 2.0 2.0 0.1 iso 0.0 1.0 1.0 	       mtk no pchain 0 tchain 1
fix	     2 all enforce2d

compute_modify 1_temp extra 357

# equilibrate to shrink box around dilute system

run	     2000
Step rot E_pair TotEng Press Volume
0    2.2718861            0        2.394      0.04788        20000
Averages over the last 11 of 21 rows, steps 1000 to 2000:
rot E_pair TotEng Press Volume
1.96375 -3.79599 -1.83028 0.999253 972.787
Loop time of 0.744775 on 1 procs for 2000 steps with 400 atoms

Pair  time (%) = 0.5056 (67.8863)
Neigh time (%) = 0.0121155 (1.62673)
Comm  time (%) = 0.0133355 (1.79054)
Outpt time (%) = 0.0179069 (2.40434)
Other time (%) = 0.195817 (26.2921)

# run dynamics on dense system

unfix	     1
fix	     1 all nve/asphere

run	     2000
Step rot E_pair TotEng Press Volume
2000    2.0794708    -3.253147   -1.2230906    0.4949131    1187.4615
Averages over the last 11 of 21 rows, steps 3000 to 4000:
rot E_pair TotEng Press Volume
2.05977 -3.23754 -1.176 0.534841 1187.46
Loop time of 0.780395 on 1 procs for 2000 steps with 400 atoms

Pair  time (%) = 0.622527 (79.7707)
Neigh time (%) = 0.00560331 (0.71801)
Comm  time (%) = 0.0139475 (1.78723)
Outpt time (%) = 0.0179484 (2.29991)
Other time (%) = 0.120369 (15.4241)
