LAMMPS (10 Jan 2012)
# 3d Lennard-Jones melt

newton          off
package 	gpu force/neigh 0 1 1 threads_per_atom 8

variable	x index 2
variable	y index 2
variable	z index 2

variable	xx equal 20*$x
variable	xx equal 20*2
variable	yy equal 20*$y
variable	yy equal 20*2
variable	zz equal 20*$z
variable	zz equal 20*2

units		lj
atom_style	atomic

lattice		fcc 0.8442
Lattice spacing in x,y,z = 1.6796 1.6796 1.6796
region		box block 0 40 0 40 0 40
create_box	1 box
Created orthogonal box = (0 0 0) to (67.1838 67.1838 67.1838)
create_atoms	1 box
Created 256000 atoms
mass		1 1.0

velocity	all create 1.44 87287 loop geom

pair_style	lj/cut/gpu 5.0
pair_coeff	1 1 1.0 1.0 5.0

neighbor	0.3 bin
neigh_modify	delay 0 every 20 check no

fix		1 all nve

thermo 		100
run		1000
Step Temp E_pair E_mol TotEng Press
0         1.44   -7.1616924            0   -5.0017009   -5.6743468
Averages over the last 6 of 11 rows, steps 500 to 1000:
Temp E_pair E_mol TotEng Press
0.717366 -6.07945 0 -5.00341 -0.0367945
Loop time of 20.8409 on 4 procs for 1000 steps with 256000 atoms

Pair  time (%) = 14.4203 (69.1925)
Neigh time (%) = 5.91874e-05 (0.000283997)
Comm  time (%) = 4.66054 (22.3625)
Outpt time (%) = 0.0455028 (0.218335)
Other time (%) = 1.71444 (8.22633)
