LAMMPS (10 Jan 2012)
# 2d indenter simulation

dimension	2
boundary	p s p

atom_style	atomic
neighbor	0.3 bin
neigh_modify	delay 5

# create geometry

lattice		hex 0.9
Lattice spacing in x,y,z = 1.1327 1.96189 1.1327
region		box block 0 20 0 10 -0.25 0.25
create_box	2 box
Created orthogonal box = (0 0 -0.283174) to (22.6539 19.6189 0.283174)
create_atoms	1 box
Created 420 atoms

mass		1 1.0
mass		2 1.0

# LJ potentials

pair_style	lj/cut 2.5
pair_coeff	* * 1.0 1.0 2.5

# define groups

region	        1 block INF INF INF 1.25 INF INF
group		lower region 1
60 atoms in group lower
group		mobile subtract all lower
360 atoms in group mobile
set		group lower type 2
  60 settings made for type

# initial velocities

compute	  	new mobile temp
velocity	mobile create 0.2 482748 temp new
fix		1 all nve
fix		2 lower setforce 0.0 0.0 0.0
fix		3 all temp/rescale 100 0.1 0.1 0.01 1.0

# run with indenter

timestep	0.003
variable	k equal 1000.0/xlat
variable        y equal "13.0*ylat - step*dt*0.02*ylat"

fix		4 all indent $k sphere 10 v_y 0 5.0
fix		4 all indent 882.8492869 sphere 10 v_y 0 5.0
fix		5 all enforce2d

thermo		1000
thermo_modify	temp new

dump		1 all atom 250 dump.indent
run		30000
Step Temp E_pair E_mol TotEng Press Volume
0          0.2   -3.1727576            0   -3.0018052   -1.4364576    444.44898
Averages over the last 16 of 31 rows, steps 15000 to 30000:
Temp E_pair E_mol TotEng Press Volume
0.117927 -3.01723 0 -2.91643 1.06611 467.426
Loop time of 2.37765 on 1 procs for 30000 steps with 420 atoms

Pair  time (%) = 1.74991 (73.5984)
Neigh time (%) = 0.0673277 (2.83169)
Comm  time (%) = 0.0314863 (1.32426)
Outpt time (%) = 0.041635 (1.7511)
Other time (%) = 0.487288 (20.4945)

# run without indenter

unfix           4
run		30000
Step Temp E_pair E_mol TotEng Press Volume
30000   0.11570444   -2.9624626            0   -2.8635628    1.5928299    479.18192
Averages over the last 16 of 31 rows, steps 45000 to 60000:
Temp E_pair E_mol TotEng Press Volume
0.115564 -3.04455 0 -2.94577 -0.204994 483.085
Loop time of 2.15946 on 1 procs for 30000 steps with 420 atoms

Pair  time (%) = 1.73037 (80.1299)
Neigh time (%) = 0.067282 (3.11568)
Comm  time (%) = 0.0314145 (1.45474)
Outpt time (%) = 0.039238 (1.81703)
Other time (%) = 0.291153 (13.4827)
