LAMMPS (10 Jan 2012)
# 2d indenter simulation

dimension	2
boundary	p s p

atom_style	atomic
neighbor	0.3 bin
neigh_modify	delay 5

# create geometry

lattice		hex 0.9
Lattice spacing in x,y,z = 1.1327 1.96189 1.1327
region		box block 0 20 0 10 -0.25 0.25
create_box	2 box
Created orthogonal box = (0 0 -0.283174) to (22.6539 19.6189 0.283174)
create_atoms	1 box
Created 420 atoms

mass		1 1.0
mass		2 1.0

# LJ potentials

pair_style	lj/cut 2.5
pair_coeff	* * 1.0 1.0 2.5

# define groups

region	        1 block INF INF INF 1.25 INF INF
group		lower region 1
60 atoms in group lower
group		mobile subtract all lower
360 atoms in group mobile
set		group lower type 2
  60 settings made for type

# initial velocities

compute	  	new mobile temp
velocity	mobile create 0.2 482748 temp new
fix		1 all nve
fix		2 lower setforce 0.0 0.0 0.0
fix		3 all temp/rescale 100 0.1 0.1 0.01 1.0

# run with indenter

timestep	0.003
variable	k equal 1000.0/xlat
variable        y equal "13.0*ylat - step*dt*0.02*ylat"

fix		4 all indent $k sphere 10 v_y 0 5.0
fix		4 all indent 882.8492869 sphere 10 v_y 0 5.0
fix		5 all enforce2d

thermo		1000
thermo_modify	temp new

dump		1 all atom 250 dump.indent
run		30000
Step Temp E_pair E_mol TotEng Press Volume
0          0.2   -3.1727576            0   -3.0018052   -1.4364576    444.44898
Averages over the last 16 of 31 rows, steps 15000 to 30000:
Temp E_pair E_mol TotEng Press Volume
0.1183 -3.01117 0 -2.91005 1.36378 462.667
Loop time of 1.0663 on 4 procs for 30000 steps with 420 atoms

Pair  time (%) = 0.451498 (42.3424)
Neigh time (%) = 0.0176335 (1.6537)
Comm  time (%) = 0.308133 (28.8973)
Outpt time (%) = 0.0310341 (2.91044)
Other time (%) = 0.258004 (24.1961)

# run without indenter

unfix           4
run		30000
Step Temp E_pair E_mol TotEng Press Volume
30000    0.1134125   -2.9719856            0   -2.8750449    1.7378746    474.09862
Averages over the last 16 of 31 rows, steps 45000 to 60000:
Temp E_pair E_mol TotEng Press Volume
0.118389 -3.04473 0 -2.94354 -0.199004 483.537
Loop time of 0.960824 on 4 procs for 30000 steps with 420 atoms

Pair  time (%) = 0.445671 (46.3843)
Neigh time (%) = 0.0183511 (1.90994)
Comm  time (%) = 0.31143 (32.4128)
Outpt time (%) = 0.030867 (3.21255)
Other time (%) = 0.154504 (16.0804)
