LAMMPS (6 Jul 2017)
# small Peridynamic cylinder hit by projectile

units           si
boundary        s s s
atom_style      peri
atom_modify     map array
neighbor        0.0010 bin

# small target

lattice         sc 0.0005
Lattice spacing in x,y,z = 0.0005 0.0005 0.0005
region          target cylinder y 0.0 0.0 0.0050 -0.0050 0.0 units box
create_box      1 target
Created orthogonal box = (-0.005 -0.005 -0.005) to (0.005 0 0.005)
create_atoms    1 region target
Created 3487 atoms

pair_style      peri/lps
pair_coeff      * * 14.9e9 14.9e9 0.0015001 0.0005 0.25
set             group all density 2200
  3487 settings made for density
set             group all volume 1.25e-10
  3487 settings made for volume
velocity        all set 0.0 0.0 0.0 sum no units box
fix             1 all nve

# spherical indenter to shatter target

variable        y0 equal 0.00155
variable        vy equal -100
variable        y equal "v_y0 + step*dt*v_vy"

fix             2 all indent 1e17 sphere 0.0000 v_y 0.0000 0.0015 units box

compute         1 all damage/atom
timestep        1.0e-7
thermo          100

#dump            1 all custom 100 dump.peri id type x y z c_1

#dump           2 all image 50 image.*.jpg type type #               axes yes 0.8 0.02 view 80 -30 adiam 0.0006
#dump_modify    2 pad 4

#dump           3 all movie 50 movie.mpg type type #               axes yes 0.8 0.02 view 80 -30 adiam 0.0006
#dump_modify    3 pad 4

run             1000
  update every 1 steps, delay 10 steps, check yes
Peridynamic bonds:
  total # of bonds = 335966
  bonds/atom = 96.3482
Step Temp E_pair E_mol TotEng Press Volume
0            0            0            0            0            0 5.0030006e-07
Averages over the last 6 of 11 rows, steps 500 to 1000:
Temp E_pair E_mol TotEng Press Volume
6.65147e+27 6.33887e+06 0 4.86537e+08 1.47036e+14 2.18106e-06
Loop time of 62.3833 on 1 procs for 1000 steps with 3487 atoms

Please see the log.cite file for references relevant to this simulation
