LAMMPS (10 Jan 2012)
# small Peridynamic cylinder hit by projectile

units		si
boundary        s s s
atom_style      peri
atom_modify	map array
neighbor        0.0010 bin

# small target

lattice         sc 0.0005
Lattice spacing in x,y,z = 0.0005 0.0005 0.0005
region          target cylinder y 0.0 0.0 0.0050 -0.0050 0.0 units box
create_box      1 target
Created orthogonal box = (-0.005 -0.005 -0.005) to (0.005 0 0.005)
create_atoms    1 region target
Created 3487 atoms

pair_style      peri/pmb
pair_coeff      * * 1.6863e22 0.0015001 0.0005 0.25
set             group all density 2200
  3487 settings made for density
set             group all volume 1.25e-10
  3487 settings made for volume
velocity        all set 0.0 0.0 0.0 sum no units box
fix             1 all nve

# spherical indenter to shatter target

variable        y0 equal 0.00155
variable        vy equal -100
variable        y equal "v_y0 + step*dt*v_vy"

fix             2 all indent 1e17 sphere 0.0000 v_y 0.0000 0.0015 units box

compute         1 all damage/atom
timestep        1.0e-7
thermo          100

dump            1 all custom 100 dump.peri id type x y z c_1

run             1000
Peridynamic bonds:
  total # of bonds = 335966
  bonds/atom = 96.3482
Step Temp E_pair E_mol TotEng Press Volume
0            0            0            0            0            0  5.41008e-07
Averages over the last 6 of 11 rows, steps 500 to 1000:
Temp E_pair E_mol TotEng Press Volume
9.78374e+27 1.40589e+07 0 7.20388e+08 1.93498e+14 2.45903e-06
Loop time of 5.88161 on 4 procs for 1000 steps with 3487 atoms

Pair  time (%) = 5.07499 (86.2858)
Neigh time (%) = 0.140587 (2.39029)
Comm  time (%) = 0.571109 (9.71008)
Outpt time (%) = 0.0524437 (0.891656)
Other time (%) = 0.0424765 (0.722191)
