LAMMPS (10 Jan 2012)
# Big colloid particles and small LJ particles

units		lj
atom_style	sphere
dimension	2

lattice		sq 0.01
Lattice spacing in x,y,z = 10 10 10
region		box block 0 30 0 30 -0.5 0.5
create_box	2 box
Created orthogonal box = (0 0 -5) to (300 300 5)
create_atoms	1 box
Created 900 atoms

set		group all type/fraction 2 0.96 23984
  861 settings made for type/fraction

set		type 1 mass 9
  39 settings made for mass
set		type 2 mass 1
  861 settings made for mass

velocity	all create 1.44 87287 loop geom

# multi neighbor and comm for efficiency

neighbor	1 multi
neigh_modify	delay 0
communicate	multi

# colloid potential

pair_style	colloid 12.5
pair_coeff	1 1  1.0 1.0 5.0 5.0 12.5
pair_coeff	1 2  5.0 1.0 5.0 0.0 7.0
pair_coeff	2 2 10.0 1.0 0.0 0.0 2.5

fix		1 all npt temp 2.0 2.0 1.0 iso 0.0 1.0 10.0 drag 1.0 	        mtk no pchain 0 tchain 1
fix		2 all enforce2d

dump		1 all atom 200 dump.colloid

thermo_style	custom step temp epair etotal press vol
thermo		1000

timestep	0.005

run		50000
Step Temp E_pair TotEng Press Volume
0         1.44 -2.2136534e-06    1.4383978  0.014383923        90000
Averages over the last 26 of 51 rows, steps 25000 to 50000:
Temp E_pair TotEng Press Volume
2.01383 0.0633668 2.07496 0.723794 4526.94
Loop time of 8.99595 on 1 procs for 50000 steps with 900 atoms

Pair  time (%) = 4.17826 (46.446)
Neigh time (%) = 1.11062 (12.3457)
Comm  time (%) = 0.42667 (4.74291)
Outpt time (%) = 0.171033 (1.90122)
Other time (%) = 3.10937 (34.5641)
